5
Coordinates from ORCA-job methane E -39.726742550846
  C       0.000000      0.000000      0.000000
  H       0.000000      0.000000      1.089000
  H       1.026700      0.000000     -0.363000
  H      -0.513400     -0.889200     -0.363000
  H      -0.513400      0.889200     -0.363000
5
Coordinates from ORCA-job methane E -39.726853203994
  C      -0.000020      0.000000     -0.000003
  H      -0.000015     -0.000000      1.081258
  H       1.019404      0.000000     -0.360437
  H      -0.509734     -0.882829     -0.360409
  H      -0.509734      0.882829     -0.360409
5
Coordinates from ORCA-job methane E -39.726863677649
  C      -0.000018      0.000000     -0.000001
  H      -0.000008     -0.000000      1.083034
  H       1.021073      0.000000     -0.361023
  H      -0.510573     -0.884294     -0.361005
  H      -0.510573      0.884294     -0.361005
5
Coordinates from ORCA-job methane E -39.726863679787
  C      -0.000019      0.000000     -0.000000
  H      -0.000008     -0.000000      1.083010
  H       1.021049      0.000000     -0.361015
  H      -0.510561     -0.884274     -0.360997
  H      -0.510561      0.884274     -0.360997
